<?xml version="1.0" encoding="UTF-8"?>

<!-- generated on Tue Oct 22 11:50:46 2013 by SUMO netconvert Version 0.18.0
<?xml version="1.0" encoding="UTF-8"?>

<configuration xmlns:xsi="http://www.w3.org/2001/XMLSchema-instance" xsi:noNamespaceSchemaLocation="http://sumo.sf.net/xsd/netconvertConfiguration.xsd">

    <input>
        <node-files value="test.nod.xml"/>
        <edge-files value="test.edg.xml"/>
    </input>

    <output>
        <output-file value="test.net.xml"/>
    </output>

</configuration>
-->

<net version="0.13" xmlns:xsi="http://www.w3.org/2001/XMLSchema-instance" xsi:noNamespaceSchemaLocation="http://sumo.sf.net/xsd/net_file.xsd">

    <location netOffset="0.00,0.00" convBoundary="0.00,0.00,800.00,800.00" origBoundary="0.00,0.00,800.00,800.00" projParameter="!"/>

    <edge id=":0/1_0" function="internal">
        <lane id=":0/1_0_0" index="0" speed="13.90" length="4.82" shape="0.00,201.65 -1.24,200.83 -1.65,200.00 -1.24,199.18 0.00,198.35"/>
    </edge>
    <edge id=":0/2_0" function="internal">
        <lane id=":0/2_0_0" index="0" speed="13.90" length="4.82" shape="0.00,401.65 -1.24,400.83 -1.65,400.00 -1.24,399.18 0.00,398.35"/>
    </edge>
    <edge id=":0/3_0" function="internal">
        <lane id=":0/3_0_0" index="0" speed="13.90" length="4.82" shape="0.00,601.65 -1.24,600.82 -1.65,600.00 -1.24,599.17 0.00,598.35"/>
    </edge>
    <edge id=":1/0_0" function="internal">
        <lane id=":1/0_0_0" index="0" speed="13.90" length="4.82" shape="198.35,0.00 199.17,-1.24 200.00,-1.65 200.82,-1.24 201.65,0.00"/>
    </edge>
    <edge id=":1/1_0" function="internal">
        <lane id=":1/1_0_0" index="0" speed="13.90" length="5.00" shape="198.35,204.75 198.16,203.39 197.57,202.42 196.61,201.84 195.25,201.65"/>
    </edge>
    <edge id=":1/1_1" function="internal">
        <lane id=":1/1_1_0" index="0" speed="13.90" length="9.50" shape="198.35,204.75 198.35,195.25"/>
    </edge>
    <edge id=":1/1_2" function="internal">
        <lane id=":1/1_2_0" index="0" speed="13.90" length="7.14" shape="198.35,204.75 198.75,201.95 199.95,199.95 201.65,198.93"/>
    </edge>
    <edge id=":1/1_16" function="internal">
        <lane id=":1/1_16_0" index="0" speed="13.90" length="3.18" shape="201.65,198.93 201.95,198.75 204.75,198.35"/>
    </edge>
    <edge id=":1/1_3" function="internal">
        <lane id=":1/1_3_0" index="0" speed="13.90" length="2.41" shape="198.35,204.75 199.17,203.51 200.00,203.10"/>
    </edge>
    <edge id=":1/1_17" function="internal">
        <lane id=":1/1_17_0" index="0" speed="13.90" length="2.41" shape="200.00,203.10 200.82,203.51 201.65,204.75"/>
    </edge>
    <edge id=":1/1_4" function="internal">
        <lane id=":1/1_4_0" index="0" speed="13.90" length="5.00" shape="204.75,201.65 203.39,201.84 202.42,202.43 201.84,203.39 201.65,204.75"/>
    </edge>
    <edge id=":1/1_5" function="internal">
        <lane id=":1/1_5_0" index="0" speed="13.90" length="9.50" shape="204.75,201.65 195.25,201.65"/>
    </edge>
    <edge id=":1/1_6" function="internal">
        <lane id=":1/1_6_0" index="0" speed="13.90" length="10.32" shape="204.75,201.65 201.95,201.25 199.95,200.05 198.75,198.05 198.35,195.25"/>
    </edge>
    <edge id=":1/1_7" function="internal">
        <lane id=":1/1_7_0" index="0" speed="13.90" length="4.82" shape="204.75,201.65 203.51,200.83 203.10,200.00 203.51,199.18 204.75,198.35"/>
    </edge>
    <edge id=":1/1_8" function="internal">
        <lane id=":1/1_8_0" index="0" speed="13.90" length="5.00" shape="201.65,195.25 201.84,196.61 202.43,197.58 203.39,198.16 204.75,198.35"/>
    </edge>
    <edge id=":1/1_9" function="internal">
        <lane id=":1/1_9_0" index="0" speed="13.90" length="9.50" shape="201.65,195.25 201.65,204.75"/>
    </edge>
    <edge id=":1/1_10" function="internal">
        <lane id=":1/1_10_0" index="0" speed="13.90" length="7.14" shape="201.65,195.25 201.25,198.05 200.05,200.05 198.35,201.07"/>
    </edge>
    <edge id=":1/1_18" function="internal">
        <lane id=":1/1_18_0" index="0" speed="13.90" length="3.18" shape="198.35,201.07 198.05,201.25 195.25,201.65"/>
    </edge>
    <edge id=":1/1_11" function="internal">
        <lane id=":1/1_11_0" index="0" speed="13.90" length="2.41" shape="201.65,195.25 200.83,196.49 200.00,196.90"/>
    </edge>
    <edge id=":1/1_19" function="internal">
        <lane id=":1/1_19_0" index="0" speed="13.90" length="2.41" shape="200.00,196.90 199.18,196.49 198.35,195.25"/>
    </edge>
    <edge id=":1/1_12" function="internal">
        <lane id=":1/1_12_0" index="0" speed="13.90" length="5.00" shape="195.25,198.35 196.61,198.16 197.58,197.57 198.16,196.61 198.35,195.25"/>
    </edge>
    <edge id=":1/1_13" function="internal">
        <lane id=":1/1_13_0" index="0" speed="13.90" length="9.50" shape="195.25,198.35 204.75,198.35"/>
    </edge>
    <edge id=":1/1_14" function="internal">
        <lane id=":1/1_14_0" index="0" speed="13.90" length="10.32" shape="195.25,198.35 198.05,198.75 200.05,199.95 201.25,201.95 201.65,204.75"/>
    </edge>
    <edge id=":1/1_15" function="internal">
        <lane id=":1/1_15_0" index="0" speed="13.90" length="4.82" shape="195.25,198.35 196.49,199.17 196.90,200.00 196.49,200.82 195.25,201.65"/>
    </edge>
    <edge id=":1/2_0" function="internal">
        <lane id=":1/2_0_0" index="0" speed="13.90" length="5.00" shape="198.35,404.75 198.16,403.39 197.57,402.42 196.61,401.84 195.25,401.65"/>
    </edge>
    <edge id=":1/2_1" function="internal">
        <lane id=":1/2_1_0" index="0" speed="13.90" length="9.50" shape="198.35,404.75 198.35,395.25"/>
    </edge>
    <edge id=":1/2_2" function="internal">
        <lane id=":1/2_2_0" index="0" speed="13.90" length="7.14" shape="198.35,404.75 198.75,401.95 199.95,399.95 201.65,398.93"/>
    </edge>
    <edge id=":1/2_16" function="internal">
        <lane id=":1/2_16_0" index="0" speed="13.90" length="3.18" shape="201.65,398.93 201.95,398.75 204.75,398.35"/>
    </edge>
    <edge id=":1/2_3" function="internal">
        <lane id=":1/2_3_0" index="0" speed="13.90" length="2.41" shape="198.35,404.75 199.17,403.51 200.00,403.10"/>
    </edge>
    <edge id=":1/2_17" function="internal">
        <lane id=":1/2_17_0" index="0" speed="13.90" length="2.41" shape="200.00,403.10 200.82,403.51 201.65,404.75"/>
    </edge>
    <edge id=":1/2_4" function="internal">
        <lane id=":1/2_4_0" index="0" speed="13.90" length="5.00" shape="204.75,401.65 203.39,401.84 202.42,402.42 201.84,403.39 201.65,404.75"/>
    </edge>
    <edge id=":1/2_5" function="internal">
        <lane id=":1/2_5_0" index="0" speed="13.90" length="9.50" shape="204.75,401.65 195.25,401.65"/>
    </edge>
    <edge id=":1/2_6" function="internal">
        <lane id=":1/2_6_0" index="0" speed="13.90" length="10.32" shape="204.75,401.65 201.95,401.25 199.95,400.05 198.75,398.05 198.35,395.25"/>
    </edge>
    <edge id=":1/2_7" function="internal">
        <lane id=":1/2_7_0" index="0" speed="13.90" length="4.82" shape="204.75,401.65 203.51,400.83 203.10,400.00 203.51,399.18 204.75,398.35"/>
    </edge>
    <edge id=":1/2_8" function="internal">
        <lane id=":1/2_8_0" index="0" speed="13.90" length="5.00" shape="201.65,395.25 201.84,396.61 202.43,397.58 203.39,398.16 204.75,398.35"/>
    </edge>
    <edge id=":1/2_9" function="internal">
        <lane id=":1/2_9_0" index="0" speed="13.90" length="9.50" shape="201.65,395.25 201.65,404.75"/>
    </edge>
    <edge id=":1/2_10" function="internal">
        <lane id=":1/2_10_0" index="0" speed="13.90" length="7.14" shape="201.65,395.25 201.25,398.05 200.05,400.05 198.35,401.07"/>
    </edge>
    <edge id=":1/2_18" function="internal">
        <lane id=":1/2_18_0" index="0" speed="13.90" length="3.18" shape="198.35,401.07 198.05,401.25 195.25,401.65"/>
    </edge>
    <edge id=":1/2_11" function="internal">
        <lane id=":1/2_11_0" index="0" speed="13.90" length="2.41" shape="201.65,395.25 200.83,396.49 200.00,396.90"/>
    </edge>
    <edge id=":1/2_19" function="internal">
        <lane id=":1/2_19_0" index="0" speed="13.90" length="2.41" shape="200.00,396.90 199.18,396.49 198.35,395.25"/>
    </edge>
    <edge id=":1/2_12" function="internal">
        <lane id=":1/2_12_0" index="0" speed="13.90" length="5.00" shape="195.25,398.35 196.61,398.16 197.58,397.58 198.16,396.61 198.35,395.25"/>
    </edge>
    <edge id=":1/2_13" function="internal">
        <lane id=":1/2_13_0" index="0" speed="13.90" length="9.50" shape="195.25,398.35 204.75,398.35"/>
    </edge>
    <edge id=":1/2_14" function="internal">
        <lane id=":1/2_14_0" index="0" speed="13.90" length="10.32" shape="195.25,398.35 198.05,398.75 200.05,399.95 201.25,401.95 201.65,404.75"/>
    </edge>
    <edge id=":1/2_15" function="internal">
        <lane id=":1/2_15_0" index="0" speed="13.90" length="4.82" shape="195.25,398.35 196.49,399.17 196.90,400.00 196.49,400.82 195.25,401.65"/>
    </edge>
    <edge id=":1/3_0" function="internal">
        <lane id=":1/3_0_0" index="0" speed="13.90" length="5.00" shape="198.35,604.75 198.16,603.39 197.57,602.42 196.61,601.84 195.25,601.65"/>
    </edge>
    <edge id=":1/3_1" function="internal">
        <lane id=":1/3_1_0" index="0" speed="13.90" length="9.50" shape="198.35,604.75 198.35,595.25"/>
    </edge>
    <edge id=":1/3_2" function="internal">
        <lane id=":1/3_2_0" index="0" speed="13.90" length="7.14" shape="198.35,604.75 198.75,601.95 199.95,599.95 201.65,598.93"/>
    </edge>
    <edge id=":1/3_16" function="internal">
        <lane id=":1/3_16_0" index="0" speed="13.90" length="3.18" shape="201.65,598.93 201.95,598.75 204.75,598.35"/>
    </edge>
    <edge id=":1/3_3" function="internal">
        <lane id=":1/3_3_0" index="0" speed="13.90" length="2.41" shape="198.35,604.75 199.17,603.51 200.00,603.10"/>
    </edge>
    <edge id=":1/3_17" function="internal">
        <lane id=":1/3_17_0" index="0" speed="13.90" length="2.41" shape="200.00,603.10 200.82,603.51 201.65,604.75"/>
    </edge>
    <edge id=":1/3_4" function="internal">
        <lane id=":1/3_4_0" index="0" speed="13.90" length="5.00" shape="204.75,601.65 203.39,601.84 202.42,602.42 201.84,603.39 201.65,604.75"/>
    </edge>
    <edge id=":1/3_5" function="internal">
        <lane id=":1/3_5_0" index="0" speed="13.90" length="9.50" shape="204.75,601.65 195.25,601.65"/>
    </edge>
    <edge id=":1/3_6" function="internal">
        <lane id=":1/3_6_0" index="0" speed="13.90" length="10.32" shape="204.75,601.65 201.95,601.25 199.95,600.05 198.75,598.05 198.35,595.25"/>
    </edge>
    <edge id=":1/3_7" function="internal">
        <lane id=":1/3_7_0" index="0" speed="13.90" length="4.82" shape="204.75,601.65 203.51,600.82 203.10,600.00 203.51,599.17 204.75,598.35"/>
    </edge>
    <edge id=":1/3_8" function="internal">
        <lane id=":1/3_8_0" index="0" speed="13.90" length="5.00" shape="201.65,595.25 201.84,596.61 202.43,597.58 203.39,598.16 204.75,598.35"/>
    </edge>
    <edge id=":1/3_9" function="internal">
        <lane id=":1/3_9_0" index="0" speed="13.90" length="9.50" shape="201.65,595.25 201.65,604.75"/>
    </edge>
    <edge id=":1/3_10" function="internal">
        <lane id=":1/3_10_0" index="0" speed="13.90" length="7.14" shape="201.65,595.25 201.25,598.05 200.05,600.05 198.35,601.07"/>
    </edge>
    <edge id=":1/3_18" function="internal">
        <lane id=":1/3_18_0" index="0" speed="13.90" length="3.18" shape="198.35,601.07 198.05,601.25 195.25,601.65"/>
    </edge>
    <edge id=":1/3_11" function="internal">
        <lane id=":1/3_11_0" index="0" speed="13.90" length="2.41" shape="201.65,595.25 200.83,596.49 200.00,596.90"/>
    </edge>
    <edge id=":1/3_19" function="internal">
        <lane id=":1/3_19_0" index="0" speed="13.90" length="2.41" shape="200.00,596.90 199.18,596.49 198.35,595.25"/>
    </edge>
    <edge id=":1/3_12" function="internal">
        <lane id=":1/3_12_0" index="0" speed="13.90" length="5.00" shape="195.25,598.35 196.61,598.16 197.58,597.58 198.16,596.61 198.35,595.25"/>
    </edge>
    <edge id=":1/3_13" function="internal">
        <lane id=":1/3_13_0" index="0" speed="13.90" length="9.50" shape="195.25,598.35 204.75,598.35"/>
    </edge>
    <edge id=":1/3_14" function="internal">
        <lane id=":1/3_14_0" index="0" speed="13.90" length="10.32" shape="195.25,598.35 198.05,598.75 200.05,599.95 201.25,601.95 201.65,604.75"/>
    </edge>
    <edge id=":1/3_15" function="internal">
        <lane id=":1/3_15_0" index="0" speed="13.90" length="4.82" shape="195.25,598.35 196.49,599.18 196.90,600.00 196.49,600.83 195.25,601.65"/>
    </edge>
    <edge id=":1/4_0" function="internal">
        <lane id=":1/4_0_0" index="0" speed="13.90" length="4.82" shape="201.65,800.00 200.83,801.24 200.00,801.65 199.18,801.24 198.35,800.00"/>
    </edge>
    <edge id=":2/0_0" function="internal">
        <lane id=":2/0_0_0" index="0" speed="13.90" length="4.82" shape="398.35,0.00 399.17,-1.24 400.00,-1.65 400.82,-1.24 401.65,0.00"/>
    </edge>
    <edge id=":2/1_0" function="internal">
        <lane id=":2/1_0_0" index="0" speed="13.90" length="5.00" shape="398.35,204.75 398.16,203.39 397.58,202.42 396.61,201.84 395.25,201.65"/>
    </edge>
    <edge id=":2/1_1" function="internal">
        <lane id=":2/1_1_0" index="0" speed="13.90" length="9.50" shape="398.35,204.75 398.35,195.25"/>
    </edge>
    <edge id=":2/1_2" function="internal">
        <lane id=":2/1_2_0" index="0" speed="13.90" length="7.14" shape="398.35,204.75 398.75,201.95 399.95,199.95 401.65,198.93"/>
    </edge>
    <edge id=":2/1_16" function="internal">
        <lane id=":2/1_16_0" index="0" speed="13.90" length="3.18" shape="401.65,198.93 401.95,198.75 404.75,198.35"/>
    </edge>
    <edge id=":2/1_3" function="internal">
        <lane id=":2/1_3_0" index="0" speed="13.90" length="2.41" shape="398.35,204.75 399.17,203.51 400.00,203.10"/>
    </edge>
    <edge id=":2/1_17" function="internal">
        <lane id=":2/1_17_0" index="0" speed="13.90" length="2.41" shape="400.00,203.10 400.82,203.51 401.65,204.75"/>
    </edge>
    <edge id=":2/1_4" function="internal">
        <lane id=":2/1_4_0" index="0" speed="13.90" length="5.00" shape="404.75,201.65 403.39,201.84 402.42,202.43 401.84,203.39 401.65,204.75"/>
    </edge>
    <edge id=":2/1_5" function="internal">
        <lane id=":2/1_5_0" index="0" speed="13.90" length="9.50" shape="404.75,201.65 395.25,201.65"/>
    </edge>
    <edge id=":2/1_6" function="internal">
        <lane id=":2/1_6_0" index="0" speed="13.90" length="10.32" shape="404.75,201.65 401.95,201.25 399.95,200.05 398.75,198.05 398.35,195.25"/>
    </edge>
    <edge id=":2/1_7" function="internal">
        <lane id=":2/1_7_0" index="0" speed="13.90" length="4.82" shape="404.75,201.65 403.51,200.83 403.10,200.00 403.51,199.18 404.75,198.35"/>
    </edge>
    <edge id=":2/1_8" function="internal">
        <lane id=":2/1_8_0" index="0" speed="13.90" length="5.00" shape="401.65,195.25 401.84,196.61 402.42,197.58 403.39,198.16 404.75,198.35"/>
    </edge>
    <edge id=":2/1_9" function="internal">
        <lane id=":2/1_9_0" index="0" speed="13.90" length="9.50" shape="401.65,195.25 401.65,204.75"/>
    </edge>
    <edge id=":2/1_10" function="internal">
        <lane id=":2/1_10_0" index="0" speed="13.90" length="7.14" shape="401.65,195.25 401.25,198.05 400.05,200.05 398.35,201.07"/>
    </edge>
    <edge id=":2/1_18" function="internal">
        <lane id=":2/1_18_0" index="0" speed="13.90" length="3.18" shape="398.35,201.07 398.05,201.25 395.25,201.65"/>
    </edge>
    <edge id=":2/1_11" function="internal">
        <lane id=":2/1_11_0" index="0" speed="13.90" length="2.41" shape="401.65,195.25 400.83,196.49 400.00,196.90"/>
    </edge>
    <edge id=":2/1_19" function="internal">
        <lane id=":2/1_19_0" index="0" speed="13.90" length="2.41" shape="400.00,196.90 399.18,196.49 398.35,195.25"/>
    </edge>
    <edge id=":2/1_12" function="internal">
        <lane id=":2/1_12_0" index="0" speed="13.90" length="5.00" shape="395.25,198.35 396.61,198.16 397.58,197.57 398.16,196.61 398.35,195.25"/>
    </edge>
    <edge id=":2/1_13" function="internal">
        <lane id=":2/1_13_0" index="0" speed="13.90" length="9.50" shape="395.25,198.35 404.75,198.35"/>
    </edge>
    <edge id=":2/1_14" function="internal">
        <lane id=":2/1_14_0" index="0" speed="13.90" length="10.32" shape="395.25,198.35 398.05,198.75 400.05,199.95 401.25,201.95 401.65,204.75"/>
    </edge>
    <edge id=":2/1_15" function="internal">
        <lane id=":2/1_15_0" index="0" speed="13.90" length="4.82" shape="395.25,198.35 396.49,199.17 396.90,200.00 396.49,200.82 395.25,201.65"/>
    </edge>
    <edge id=":2/2_0" function="internal">
        <lane id=":2/2_0_0" index="0" speed="13.90" length="5.00" shape="398.35,404.75 398.16,403.39 397.58,402.42 396.61,401.84 395.25,401.65"/>
    </edge>
    <edge id=":2/2_1" function="internal">
        <lane id=":2/2_1_0" index="0" speed="13.90" length="9.50" shape="398.35,404.75 398.35,395.25"/>
    </edge>
    <edge id=":2/2_2" function="internal">
        <lane id=":2/2_2_0" index="0" speed="13.90" length="7.14" shape="398.35,404.75 398.75,401.95 399.95,399.95 401.65,398.93"/>
    </edge>
    <edge id=":2/2_16" function="internal">
        <lane id=":2/2_16_0" index="0" speed="13.90" length="3.18" shape="401.65,398.93 401.95,398.75 404.75,398.35"/>
    </edge>
    <edge id=":2/2_3" function="internal">
        <lane id=":2/2_3_0" index="0" speed="13.90" length="2.41" shape="398.35,404.75 399.17,403.51 400.00,403.10"/>
    </edge>
    <edge id=":2/2_17" function="internal">
        <lane id=":2/2_17_0" index="0" speed="13.90" length="2.41" shape="400.00,403.10 400.82,403.51 401.65,404.75"/>
    </edge>
    <edge id=":2/2_4" function="internal">
        <lane id=":2/2_4_0" index="0" speed="13.90" length="5.00" shape="404.75,401.65 403.39,401.84 402.42,402.42 401.84,403.39 401.65,404.75"/>
    </edge>
    <edge id=":2/2_5" function="internal">
        <lane id=":2/2_5_0" index="0" speed="13.90" length="9.50" shape="404.75,401.65 395.25,401.65"/>
    </edge>
    <edge id=":2/2_6" function="internal">
        <lane id=":2/2_6_0" index="0" speed="13.90" length="10.32" shape="404.75,401.65 401.95,401.25 399.95,400.05 398.75,398.05 398.35,395.25"/>
    </edge>
    <edge id=":2/2_7" function="internal">
        <lane id=":2/2_7_0" index="0" speed="13.90" length="4.82" shape="404.75,401.65 403.51,400.83 403.10,400.00 403.51,399.18 404.75,398.35"/>
    </edge>
    <edge id=":2/2_8" function="internal">
        <lane id=":2/2_8_0" index="0" speed="13.90" length="5.00" shape="401.65,395.25 401.84,396.61 402.42,397.58 403.39,398.16 404.75,398.35"/>
    </edge>
    <edge id=":2/2_9" function="internal">
        <lane id=":2/2_9_0" index="0" speed="13.90" length="9.50" shape="401.65,395.25 401.65,404.75"/>
    </edge>
    <edge id=":2/2_10" function="internal">
        <lane id=":2/2_10_0" index="0" speed="13.90" length="7.14" shape="401.65,395.25 401.25,398.05 400.05,400.05 398.35,401.07"/>
    </edge>
    <edge id=":2/2_18" function="internal">
        <lane id=":2/2_18_0" index="0" speed="13.90" length="3.18" shape="398.35,401.07 398.05,401.25 395.25,401.65"/>
    </edge>
    <edge id=":2/2_11" function="internal">
        <lane id=":2/2_11_0" index="0" speed="13.90" length="2.41" shape="401.65,395.25 400.83,396.49 400.00,396.90"/>
    </edge>
    <edge id=":2/2_19" function="internal">
        <lane id=":2/2_19_0" index="0" speed="13.90" length="2.41" shape="400.00,396.90 399.18,396.49 398.35,395.25"/>
    </edge>
    <edge id=":2/2_12" function="internal">
        <lane id=":2/2_12_0" index="0" speed="13.90" length="5.00" shape="395.25,398.35 396.61,398.16 397.58,397.58 398.16,396.61 398.35,395.25"/>
    </edge>
    <edge id=":2/2_13" function="internal">
        <lane id=":2/2_13_0" index="0" speed="13.90" length="9.50" shape="395.25,398.35 404.75,398.35"/>
    </edge>
    <edge id=":2/2_14" function="internal">
        <lane id=":2/2_14_0" index="0" speed="13.90" length="10.32" shape="395.25,398.35 398.05,398.75 400.05,399.95 401.25,401.95 401.65,404.75"/>
    </edge>
    <edge id=":2/2_15" function="internal">
        <lane id=":2/2_15_0" index="0" speed="13.90" length="4.82" shape="395.25,398.35 396.49,399.17 396.90,400.00 396.49,400.82 395.25,401.65"/>
    </edge>
    <edge id=":2/3_0" function="internal">
        <lane id=":2/3_0_0" index="0" speed="13.90" length="5.00" shape="398.35,604.75 398.16,603.39 397.58,602.42 396.61,601.84 395.25,601.65"/>
    </edge>
    <edge id=":2/3_1" function="internal">
        <lane id=":2/3_1_0" index="0" speed="13.90" length="9.50" shape="398.35,604.75 398.35,595.25"/>
    </edge>
    <edge id=":2/3_2" function="internal">
        <lane id=":2/3_2_0" index="0" speed="13.90" length="7.14" shape="398.35,604.75 398.75,601.95 399.95,599.95 401.65,598.93"/>
    </edge>
    <edge id=":2/3_16" function="internal">
        <lane id=":2/3_16_0" index="0" speed="13.90" length="3.18" shape="401.65,598.93 401.95,598.75 404.75,598.35"/>
    </edge>
    <edge id=":2/3_3" function="internal">
        <lane id=":2/3_3_0" index="0" speed="13.90" length="2.41" shape="398.35,604.75 399.17,603.51 400.00,603.10"/>
    </edge>
    <edge id=":2/3_17" function="internal">
        <lane id=":2/3_17_0" index="0" speed="13.90" length="2.41" shape="400.00,603.10 400.82,603.51 401.65,604.75"/>
    </edge>
    <edge id=":2/3_4" function="internal">
        <lane id=":2/3_4_0" index="0" speed="13.90" length="5.00" shape="404.75,601.65 403.39,601.84 402.42,602.42 401.84,603.39 401.65,604.75"/>
    </edge>
    <edge id=":2/3_5" function="internal">
        <lane id=":2/3_5_0" index="0" speed="13.90" length="9.50" shape="404.75,601.65 395.25,601.65"/>
    </edge>
    <edge id=":2/3_6" function="internal">
        <lane id=":2/3_6_0" index="0" speed="13.90" length="10.32" shape="404.75,601.65 401.95,601.25 399.95,600.05 398.75,598.05 398.35,595.25"/>
    </edge>
    <edge id=":2/3_7" function="internal">
        <lane id=":2/3_7_0" index="0" speed="13.90" length="4.82" shape="404.75,601.65 403.51,600.82 403.10,600.00 403.51,599.17 404.75,598.35"/>
    </edge>
    <edge id=":2/3_8" function="internal">
        <lane id=":2/3_8_0" index="0" speed="13.90" length="5.00" shape="401.65,595.25 401.84,596.61 402.42,597.58 403.39,598.16 404.75,598.35"/>
    </edge>
    <edge id=":2/3_9" function="internal">
        <lane id=":2/3_9_0" index="0" speed="13.90" length="9.50" shape="401.65,595.25 401.65,604.75"/>
    </edge>
    <edge id=":2/3_10" function="internal">
        <lane id=":2/3_10_0" index="0" speed="13.90" length="7.14" shape="401.65,595.25 401.25,598.05 400.05,600.05 398.35,601.07"/>
    </edge>
    <edge id=":2/3_18" function="internal">
        <lane id=":2/3_18_0" index="0" speed="13.90" length="3.18" shape="398.35,601.07 398.05,601.25 395.25,601.65"/>
    </edge>
    <edge id=":2/3_11" function="internal">
        <lane id=":2/3_11_0" index="0" speed="13.90" length="2.41" shape="401.65,595.25 400.83,596.49 400.00,596.90"/>
    </edge>
    <edge id=":2/3_19" function="internal">
        <lane id=":2/3_19_0" index="0" speed="13.90" length="2.41" shape="400.00,596.90 399.18,596.49 398.35,595.25"/>
    </edge>
    <edge id=":2/3_12" function="internal">
        <lane id=":2/3_12_0" index="0" speed="13.90" length="5.00" shape="395.25,598.35 396.61,598.16 397.58,597.58 398.16,596.61 398.35,595.25"/>
    </edge>
    <edge id=":2/3_13" function="internal">
        <lane id=":2/3_13_0" index="0" speed="13.90" length="9.50" shape="395.25,598.35 404.75,598.35"/>
    </edge>
    <edge id=":2/3_14" function="internal">
        <lane id=":2/3_14_0" index="0" speed="13.90" length="10.32" shape="395.25,598.35 398.05,598.75 400.05,599.95 401.25,601.95 401.65,604.75"/>
    </edge>
    <edge id=":2/3_15" function="internal">
        <lane id=":2/3_15_0" index="0" speed="13.90" length="4.82" shape="395.25,598.35 396.49,599.18 396.90,600.00 396.49,600.83 395.25,601.65"/>
    </edge>
    <edge id=":2/4_0" function="internal">
        <lane id=":2/4_0_0" index="0" speed="13.90" length="4.82" shape="401.65,800.00 400.83,801.24 400.00,801.65 399.18,801.24 398.35,800.00"/>
    </edge>
    <edge id=":3/0_0" function="internal">
        <lane id=":3/0_0_0" index="0" speed="13.90" length="4.82" shape="598.35,0.00 599.18,-1.24 600.00,-1.65 600.83,-1.24 601.65,0.00"/>
    </edge>
    <edge id=":3/1_0" function="internal">
        <lane id=":3/1_0_0" index="0" speed="13.90" length="5.00" shape="598.35,204.75 598.16,203.39 597.58,202.42 596.61,201.84 595.25,201.65"/>
    </edge>
    <edge id=":3/1_1" function="internal">
        <lane id=":3/1_1_0" index="0" speed="13.90" length="9.50" shape="598.35,204.75 598.35,195.25"/>
    </edge>
    <edge id=":3/1_2" function="internal">
        <lane id=":3/1_2_0" index="0" speed="13.90" length="7.14" shape="598.35,204.75 598.75,201.95 599.95,199.95 601.65,198.93"/>
    </edge>
    <edge id=":3/1_16" function="internal">
        <lane id=":3/1_16_0" index="0" speed="13.90" length="3.18" shape="601.65,198.93 601.95,198.75 604.75,198.35"/>
    </edge>
    <edge id=":3/1_3" function="internal">
        <lane id=":3/1_3_0" index="0" speed="13.90" length="2.41" shape="598.35,204.75 599.18,203.51 600.00,203.10"/>
    </edge>
    <edge id=":3/1_17" function="internal">
        <lane id=":3/1_17_0" index="0" speed="13.90" length="2.41" shape="600.00,203.10 600.83,203.51 601.65,204.75"/>
    </edge>
    <edge id=":3/1_4" function="internal">
        <lane id=":3/1_4_0" index="0" speed="13.90" length="5.00" shape="604.75,201.65 603.39,201.84 602.42,202.43 601.84,203.39 601.65,204.75"/>
    </edge>
    <edge id=":3/1_5" function="internal">
        <lane id=":3/1_5_0" index="0" speed="13.90" length="9.50" shape="604.75,201.65 595.25,201.65"/>
    </edge>
    <edge id=":3/1_6" function="internal">
        <lane id=":3/1_6_0" index="0" speed="13.90" length="10.32" shape="604.75,201.65 601.95,201.25 599.95,200.05 598.75,198.05 598.35,195.25"/>
    </edge>
    <edge id=":3/1_7" function="internal">
        <lane id=":3/1_7_0" index="0" speed="13.90" length="4.82" shape="604.75,201.65 603.51,200.83 603.10,200.00 603.51,199.18 604.75,198.35"/>
    </edge>
    <edge id=":3/1_8" function="internal">
        <lane id=":3/1_8_0" index="0" speed="13.90" length="5.00" shape="601.65,195.25 601.84,196.61 602.42,197.58 603.39,198.16 604.75,198.35"/>
    </edge>
    <edge id=":3/1_9" function="internal">
        <lane id=":3/1_9_0" index="0" speed="13.90" length="9.50" shape="601.65,195.25 601.65,204.75"/>
    </edge>
    <edge id=":3/1_10" function="internal">
        <lane id=":3/1_10_0" index="0" speed="13.90" length="7.14" shape="601.65,195.25 601.25,198.05 600.05,200.05 598.35,201.07"/>
    </edge>
    <edge id=":3/1_18" function="internal">
        <lane id=":3/1_18_0" index="0" speed="13.90" length="3.18" shape="598.35,201.07 598.05,201.25 595.25,201.65"/>
    </edge>
    <edge id=":3/1_11" function="internal">
        <lane id=":3/1_11_0" index="0" speed="13.90" length="2.41" shape="601.65,195.25 600.82,196.49 600.00,196.90"/>
    </edge>
    <edge id=":3/1_19" function="internal">
        <lane id=":3/1_19_0" index="0" speed="13.90" length="2.41" shape="600.00,196.90 599.17,196.49 598.35,195.25"/>
    </edge>
    <edge id=":3/1_12" function="internal">
        <lane id=":3/1_12_0" index="0" speed="13.90" length="5.00" shape="595.25,198.35 596.61,198.16 597.58,197.57 598.16,196.61 598.35,195.25"/>
    </edge>
    <edge id=":3/1_13" function="internal">
        <lane id=":3/1_13_0" index="0" speed="13.90" length="9.50" shape="595.25,198.35 604.75,198.35"/>
    </edge>
    <edge id=":3/1_14" function="internal">
        <lane id=":3/1_14_0" index="0" speed="13.90" length="10.32" shape="595.25,198.35 598.05,198.75 600.05,199.95 601.25,201.95 601.65,204.75"/>
    </edge>
    <edge id=":3/1_15" function="internal">
        <lane id=":3/1_15_0" index="0" speed="13.90" length="4.82" shape="595.25,198.35 596.49,199.17 596.90,200.00 596.49,200.82 595.25,201.65"/>
    </edge>
    <edge id=":3/2_0" function="internal">
        <lane id=":3/2_0_0" index="0" speed="13.90" length="5.00" shape="598.35,404.75 598.16,403.39 597.58,402.42 596.61,401.84 595.25,401.65"/>
    </edge>
    <edge id=":3/2_1" function="internal">
        <lane id=":3/2_1_0" index="0" speed="13.90" length="9.50" shape="598.35,404.75 598.35,395.25"/>
    </edge>
    <edge id=":3/2_2" function="internal">
        <lane id=":3/2_2_0" index="0" speed="13.90" length="7.14" shape="598.35,404.75 598.75,401.95 599.95,399.95 601.65,398.93"/>
    </edge>
    <edge id=":3/2_16" function="internal">
        <lane id=":3/2_16_0" index="0" speed="13.90" length="3.18" shape="601.65,398.93 601.95,398.75 604.75,398.35"/>
    </edge>
    <edge id=":3/2_3" function="internal">
        <lane id=":3/2_3_0" index="0" speed="13.90" length="2.41" shape="598.35,404.75 599.18,403.51 600.00,403.10"/>
    </edge>
    <edge id=":3/2_17" function="internal">
        <lane id=":3/2_17_0" index="0" speed="13.90" length="2.41" shape="600.00,403.10 600.83,403.51 601.65,404.75"/>
    </edge>
    <edge id=":3/2_4" function="internal">
        <lane id=":3/2_4_0" index="0" speed="13.90" length="5.00" shape="604.75,401.65 603.39,401.84 602.42,402.42 601.84,403.39 601.65,404.75"/>
    </edge>
    <edge id=":3/2_5" function="internal">
        <lane id=":3/2_5_0" index="0" speed="13.90" length="9.50" shape="604.75,401.65 595.25,401.65"/>
    </edge>
    <edge id=":3/2_6" function="internal">
        <lane id=":3/2_6_0" index="0" speed="13.90" length="10.32" shape="604.75,401.65 601.95,401.25 599.95,400.05 598.75,398.05 598.35,395.25"/>
    </edge>
    <edge id=":3/2_7" function="internal">
        <lane id=":3/2_7_0" index="0" speed="13.90" length="4.82" shape="604.75,401.65 603.51,400.83 603.10,400.00 603.51,399.18 604.75,398.35"/>
    </edge>
    <edge id=":3/2_8" function="internal">