<?xml version="1.0" encoding="UTF-8"?>

<!-- generated on Tue Oct 22 11:27:41 2013 by SUMO netgenerate Version 0.18.0
<?xml version="1.0" encoding="UTF-8"?>

<configuration xmlns:xsi="http://www.w3.org/2001/XMLSchema-instance" xsi:noNamespaceSchemaLocation="http://sumo.sf.net/xsd/netgenerateConfiguration.xsd">

    <grid_network>
        <grid value="true"/>
        <grid.length value="200"/>
    </grid_network>

    <output>
        <output-file value="test.net.xml"/>
        <plain-output-prefix value="test"/>
    </output>

</configuration>
-->

<edges version="0.13" xmlns:xsi="http://www.w3.org/2001/XMLSchema-instance" xsi:noNamespaceSchemaLocation="http://sumo.sf.net/xsd/edges_file.xsd">
    <edge id="0/1to1/1" from="0/1" to="1/1" priority="-1" numLanes="1" speed="13.90"/>
    <edge id="0/2to1/2" from="0/2" to="1/2" priority="-1" numLanes="1" speed="13.90"/>
    <edge id="0/3to1/3" from="0/3" to="1/3" priority="-1" numLanes="1" speed="13.90"/>
    <edge id="1/0to1/1" from="1/0" to="1/1" priority="-1" numLanes="1" speed="13.90"/>
    <edge id="1/1to0/1" from="1/1" to="0/1" priority="-1" numLanes="1" speed="13.90"/>
    <edge id="1/1to1/0" from="1/1" to="1/0" priority="-1" numLanes="1" speed="13.90"/>
    <edge id="1/1to1/2" from="1/1" to="1/2" priority="-1" numLanes="1" speed="13.90"/>
    <edge id="1/1to2/1" from="1/1" to="2/1" priority="-1" numLanes="1" speed="13.90"/>
    <edge id="1/2to0/2" from="1/2" to="0/2" priority="-1" numLanes="1" speed="13.90"/>
    <edge id="1/2to1/1" from="1/2" to="1/1" priority="-1" numLanes="1" speed="13.90"/>
    <edge id="1/2to1/3" from="1/2" to="1/3" priority="-1" numLanes="1" speed="13.90"/>
    <edge id="1/2to2/2" from="1/2" to="2/2" priority="-1" numLanes="1" speed="13.90"/>
    <edge id="1/3to0/3" from="1/3" to="0/3" priority="-1" numLanes="1" speed="13.90"/>
    <edge id="1/3to1/2" from="1/3" to="1/2" priority="-1" numLanes="1" speed="13.90"/>
    <edge id="1/3to1/4" from="1/3" to="1/4" priority="-1" numLanes="1" speed="13.90"/>
    <edge id="1/3to2/3" from="1/3" to="2/3" priority="-1" numLanes="1" speed="13.90"/>
    <edge id="1/4to1/3" from="1/4" to="1/3" priority="-1" numLanes="1" speed="13.90"/>
    <edge id="2/0to2/1" from="2/0" to="2/1" priority="-1" numLanes="1" speed="13.90"/>
    <edge id="2/1to1/1" from="2/1" to="1/1" priority="-1" numLanes="1" speed="13.90"/>
    <edge id="2/1to2/0" from="2/1" to="2/0" priority="-1" numLanes="1" speed="13.90"/>
    <edge id="2/1to2/2" from="2/1" to="2/2" priority="-1" numLanes="1" speed="13.90"/>
    <edge id="2/1to3/1" from="2/1" to="3/1" priority="-1" numLanes="1" speed="13.90"/>
    <edge id="2/2to1/2" from="2/2" to="1/2" priority="-1" numLanes="1" speed="13.90"/>
    <edge id="2/2to2/1" from="2/2" to="2/1" priority="-1" numLanes="1" speed="13.90"/>
    <edge id="2/2to2/3" from="2/2" to="2/3" priority="-1" numLanes="1" speed="13.90"/>
    <edge id="2/2to3/2" from="2/2" to="3/2" priority="-1" numLanes="1" speed="13.90"/>
    <edge id="2/3to1/3" from="2/3" to="1/3" priority="-1" numLanes="1" speed="13.90"/>
    <edge id="2/3to2/2" from="2/3" to="2/2" priority="-1" numLanes="1" speed="13.90"/>
    <edge id="2/3to2/4" from="2/3" to="2/4" priority="-1" numLanes="1" speed="13.90"/>
    <edge id="2/3to3/3" from="2/3" to="3/3" priority="-1" numLanes="1" speed="13.90"/>
    <edge id="2/4to2/3" from="2/4" to="2/3" priority="-1" numLanes="1" speed="13.90"/>
    <edge id="3/0to3/1" from="3/0" to="3/1" priority="-1" numLanes="1" speed="13.90"/>
    <edge id="3/1to2/1" from="3/1" to="2/1" priority="-1" numLanes="1" speed="13.90"/>
    <edge id="3/1to3/0" from="3/1" to="3/0" priority="-1" numLanes="1" speed="13.90"/>
    <edge id="3/1to3/2" from="3/1" to="3/2" priority="-1" numLanes="1" speed="13.90"/>
    <edge id="3/1to4/1" from="3/1" to="4/1" priority="-1" numLanes="1" speed="13.90"/>
    <edge id="3/2to2/2" from="3/2" to="2/2" priority="-1" numLanes="1" speed="13.90"/>
    <edge id="3/2to3/1" from="3/2" to="3/1" priority="-1" numLanes="1" speed="13.90"/>
    <edge id="3/2to3/3" from="3/2" to="3/3" priority="-1" numLanes="1" speed="13.90"/>
    <edge id="3/2to4/2" from="3/2" to="4/2" priority="-1" numLanes="1" speed="13.90"/>
    <edge id="3/3to2/3" from="3/3" to="2/3" priority="-1" numLanes="1" speed="13.90"/>
    <edge id="3/3to3/2" from="3/3" to="3/2" priority="-1" numLanes="1" speed="13.90"/>
    <edge id="3/3to3/4" from="3/3" to="3/4" priority="-1" numLanes="1" speed="13.90"/>
    <edge id="3/3to4/3" from="3/3" to="4/3" priority="-1" numLanes="1" speed="13.90"/>
    <edge id="3/4to3/3" from="3/4" to="3/3" priority="-1" numLanes="1" speed="13.90"/>
    <edge id="4/1to3/1" from="4/1" to="3/1" priority="-1" numLanes="1" speed="13.90"/>
    <edge id="4/2to3/2" from="4/2" to="3/2" priority="-1" numLanes="1" speed="13.90"/>
    <edge id="4/3to3/3" from="4/3" to="3/3" priority="-1" numLanes="1" speed="13.90"/>
</edges>
